Version 4
SHEET 1 880 680
WIRE 64 96 -144 96
WIRE -144 112 -144 96
WIRE 64 112 64 96
WIRE 80 112 64 112
WIRE 256 112 240 112
WIRE 80 176 64 176
WIRE -144 224 -144 192
WIRE 64 224 64 176
WIRE 64 224 -144 224
FLAG 240 176 0
FLAG 336 112 0
SYMBOL puentedediodos 160 144 R0
SYMATTR InstName X1
SYMBOL res 352 96 R90
WINDOW 0 0 56 VBottom 2
WINDOW 3 32 56 VTop 2
SYMATTR InstName R1
SYMATTR Value 1k
SYMBOL voltage -144 96 R0
WINDOW 123 0 0 Left 0
WINDOW 39 0 0 Left 0
SYMATTR InstName V1
SYMATTR Value SINE(0 12 50)
TEXT -32 264 Left 2 !.tran 20ms
