Version 4
SHEET 1 880 680
WIRE 112 80 48 80
WIRE 224 80 192 80
WIRE 336 80 288 80
WIRE 432 80 416 80
WIRE 48 112 48 80
WIRE 48 208 48 192
WIRE 240 208 48 208
WIRE 432 208 432 80
WIRE 432 208 240 208
FLAG 240 208 0
SYMBOL voltage 48 96 R0
WINDOW 3 36 73 Left 2
WINDOW 123 0 0 Left 0
WINDOW 39 0 0 Left 0
SYMATTR InstName V1
SYMATTR Value SINE(0 5 {f} 0)
SYMBOL res 208 64 R90
WINDOW 0 0 56 VBottom 2
WINDOW 3 32 56 VTop 2
SYMATTR InstName R1
SYMATTR Value 1
SYMBOL cap 288 64 R90
WINDOW 0 0 32 VBottom 2
WINDOW 3 32 32 VTop 2
SYMATTR InstName C1
SYMATTR Value {C}
SYMBOL ind 320 96 R270
WINDOW 0 32 56 VTop 2
WINDOW 3 5 56 VBottom 2
SYMATTR InstName L1
SYMATTR Value {L}
TEXT 48 256 Left 2 !.param w=20000
TEXT 48 280 Left 2 !.param Q=100
TEXT 48 304 Left 2 !.param f={w/(2*pi)}
TEXT 48 328 Left 2 !.param C={1/(Q*W*1)}
TEXT 48 352 Left 2 !.param L={Q*1/W}
TEXT 48 384 Left 2 !.tran 1m
